
**** 01/17/19 14:38:27 ****** PSpice Lite (October 2012) ****** ID# 10813 ****

 ** Profile: "SCHEMATIC1-simuln"  [ D:\PROJECTS\pspice\test_analog\lowPass_highPass_bandPass-PSpiceFiles\SCHEMATIC1\simuln.sim ] 


 ****     CIRCUIT DESCRIPTION


******************************************************************************




** Creating circuit file "simuln.cir" 
** WARNING: THIS AUTOMATICALLY GENERATED FILE MAY BE OVERWRITTEN BY SUBSEQUENT SIMULATIONS

*Libraries: 
* Profile Libraries :
* Local Libraries :
* From [PSPICE NETLIST] section of C:\Cadence\SPB_Data\cdssetup\OrCAD_PSpice/16.6.0/PSpice.ini file:
.lib "nomd.lib" 

*Analysis directives: 
.AC DEC 10 2 2G
.OPTIONS ADVCONV
.PROBE64 V(alias(*)) I(alias(*)) W(alias(*)) D(alias(*)) NOISE(alias(*)) 
.INC "..\SCHEMATIC1.net" 



**** INCLUDING SCHEMATIC1.net ****
* source LOWPASS_HIGHPASS_BANDPASS
C_C1         N04639 N04597  1n  TC=0,0 
R_R8         N04563 N05021  1k TC=0,0 
R_R6         N04775 N04785  10k TC=0,0 
V_V1         N04639 0  AC 1
+SIN 0 5 500 0 0 0
E_U4         N04785 0 VALUE {LIMIT(V(N04775,N04807)*1E6,-15V,+15V)}
R_R10         0 N05085  1k TC=0,0 
R_R3         N04553 N04563  10k TC=0,0 
C_C2         0 N04807  1n  TC=0,0 
E_U5         N05139 0 VALUE {LIMIT(V(N05085,N05021)*1E6,-15V,+15V)}
R_R2         0 N04553  1k TC=0,0 
E_U3         N04563 0 VALUE {LIMIT(V(N04553,N04597)*1E6,-15V,+15V)}
R_R5         0 N04775  1k TC=0,0 
R_R11         N05085 N05139  2k TC=0,0 
R_R7         N04639 N04807  100k TC=0,0 
R_R9         N04785 N05021  1k TC=0,0 
R_R12         0 N04597  1k TC=0,0 

**** RESUMING simuln.cir ****
.END

**** 01/17/19 14:38:27 ****** PSpice Lite (October 2012) ****** ID# 10813 ****

 ** Profile: "SCHEMATIC1-simuln"  [ D:\PROJECTS\pspice\test_analog\lowPass_highPass_bandPass-PSpiceFiles\SCHEMATIC1\simuln.sim ] 


 ****     SMALL SIGNAL BIAS SOLUTION       TEMPERATURE =   27.000 DEG C


******************************************************************************



 NODE   VOLTAGE     NODE   VOLTAGE     NODE   VOLTAGE     NODE   VOLTAGE


(N04553)    0.0000 (N04563)    0.0000 (N04597)    0.0000 (N04639)    0.0000     

(N04775)    0.0000 (N04785)    0.0000 (N04807)    0.0000 (N05021)    0.0000     

(N05085)    0.0000 (N05139)    0.0000 




    VOLTAGE SOURCE CURRENTS
    NAME         CURRENT

    V_V1         0.000E+00

    TOTAL POWER DISSIPATION   0.00E+00  WATTS



          JOB CONCLUDED

**** 01/17/19 14:38:27 ****** PSpice Lite (October 2012) ****** ID# 10813 ****

 ** Profile: "SCHEMATIC1-simuln"  [ D:\PROJECTS\pspice\test_analog\lowPass_highPass_bandPass-PSpiceFiles\SCHEMATIC1\simuln.sim ] 


 ****     JOB STATISTICS SUMMARY


******************************************************************************



  Total job time (using Solver 1)   =         .03
